gtep/data/9_bus_GTEP_dir/bus.csv
Bus ID,Bus Name,BaseKV,Bus Type,MW Load,MVAR Load,V Mag,V Angle,Area,Zone,lat,lng
 1,bus1,345,Ref,0,0,1,0,1,1,-30,30
 2,bus2,345,PV,0,0,1,0,1,1,-30,30
 3,bus3,345,PV,0,0,1,0,1,1,-30,30
 4,bus4,345,PQ,0,0,1,0,1,1,-30,30
 5,bus5,345,PQ,305.4,123.15,1,0,1,1,-30,30
 6,bus6,345,PQ,0,0,1,0,1,1,-30,30
 7,bus7,345,PQ,214.11,71.09,1,0,1,1,-30,30
 8,bus8,345,PQ,0,0,1,0,1,1,-30,30
 9,bus9,345,PQ,235.61,81.44,1,0,1,1,-30,30
